!- Windows Line endings 

Version,
    23.1;                     !- Version Identifier

SimulationControl,
    No,                       !- Do Zone Sizing Calculation
    No,                       !- Do System Sizing Calculation
    No,                       !- Do Plant Sizing Calculation
    No,                       !- Run Simulation for Sizing Periods
    Yes,                      !- Run Simulation for Weather File Run Periods
    No,                       !- Do HVAC Sizing Simulation for Sizing Periods
    1;                        !- Maximum Number of HVAC Sizing Simulation Passes

Building,
    GEM_SOBREPOSTA,           !- Name
    90,                       !- North Axis
    City,                     !- Terrain
    0.04,                     !- Loads Convergence Tolerance Value
    0.4,                      !- Temperature Convergence Tolerance Value
    FullInteriorAndExteriorWithReflections,    !- Solar Distribution
    25,                       !- Maximum Number of Warmup Days
    6;                        !- Minimum Number of Warmup Days

Timestep,
    6;                        !- Number of Timesteps per Hour

RunPeriod,
    ano,                      !- Name
    1,                        !- Begin Month
    1,                        !- Begin Day of Month
    ,                         !- Begin Year
    1,                        !- End Month
    2,                        !- End Day of Month
    ,                         !- End Year
    Monday,                   !- Day of Week for Start Day
    No,                       !- Use Weather File Holidays and Special Days
    No,                       !- Use Weather File Daylight Saving Period
    No,                       !- Apply Weekend Holiday Rule
    No,                       !- Use Weather File Rain Indicators
    No;                       !- Use Weather File Snow Indicators

Site:GroundTemperature:Undisturbed:FiniteDifference,
    groundtemp_finitediff,    !- Name
    1,                        !- Soil Thermal Conductivity
    1250,                     !- Soil Density
    1200,                     !- Soil Specific Heat
    30,                       !- Soil Moisture Content Volume Fraction
    50,                       !- Soil Moisture Content Volume Fraction at Saturation
    0.4;                      !- Evapotranspiration Ground Cover Parameter

Site:GroundDomain:Slab,
    grounddomain_slab,        !- Name
    10,                       !- Ground Domain Depth
    1,                        !- Aspect Ratio
    5,                        !- Perimeter Offset
    1,                        !- Soil Thermal Conductivity
    1250,                     !- Soil Density
    1200,                     !- Soil Specific Heat
    30,                       !- Soil Moisture Content Volume Fraction
    50,                       !- Soil Moisture Content Volume Fraction at Saturation
    Site:GroundTemperature:Undisturbed:FiniteDifference,    !- Undisturbed Ground Temperature Model Type
    groundtemp_finitediff,    !- Undisturbed Ground Temperature Model Name
    0.4,                      !- Evapotranspiration Ground Cover Parameter
    ground_coupled_oscm,      !- Slab Boundary Condition Model Name
    OnGrade,                  !- Slab Location
    ,                         !- Slab Material Name
    No,                       !- Horizontal Insulation
    ,                         !- Horizontal Insulation Material Name
    Full,                     !- Horizontal Insulation Extents
    ,                         !- Perimeter Insulation Width
    No,                       !- Vertical Insulation
    ,                         !- Vertical Insulation Material Name
    ,                         !- Vertical Insulation Depth
    Timestep,                 !- Simulation Timestep
    1.6,                      !- Geometric Mesh Coefficient
    6;                        !- Mesh Density Parameter

ScheduleTypeLimits,
    on_off,                   !- Name
    0,                        !- Lower Limit Value
    1,                        !- Upper Limit Value
    Discrete,                 !- Numeric Type
    Control;                  !- Unit Type

ScheduleTypeLimits,
    ocupacao,                 !- Name
    0,                        !- Lower Limit Value
    1,                        !- Upper Limit Value
    Continuous,               !- Numeric Type
    Percent;                  !- Unit Type

ScheduleTypeLimits,
    atividade,                !- Name
    0,                        !- Lower Limit Value
    1000,                     !- Upper Limit Value
    Continuous,               !- Numeric Type
    ActivityLevel;            !- Unit Type

ScheduleTypeLimits,
    anynumber_hvac;           !- Name

ScheduleTypeLimits,
    faixa_temp,               !- Name
    0,                        !- Lower Limit Value
    50,                       !- Upper Limit Value
    Continuous,               !- Numeric Type
    Temperature;              !- Unit Type

Schedule:Compact,
    sch_ilum_sala,            !- Name
    on_off,                   !- Schedule Type Limits Name
    Through: 12/31,           !- Field 1
    For: AllDays,             !- Field 2
    Until: 16:00,             !- Field 3
    0,                        !- Field 4
    Until: 22:00,             !- Field 5
    1,                        !- Field 6
    Until: 24:00,             !- Field 7
    0;                        !- Field 8

Schedule:Compact,
    sch_ilum_dorm,            !- Name
    on_off,                   !- Schedule Type Limits Name
    Through: 12/31,           !- Field 1
    For: AllDays,             !- Field 2
    Until: 06:00,             !- Field 3
    0,                        !- Field 4
    Until: 08:00,             !- Field 5
    1,                        !- Field 6
    Until: 22:00,             !- Field 7
    0,                        !- Field 8
    Until: 24:00,             !- Field 9
    1;                        !- Field 10

Schedule:Compact,
    sch_ativ_sala,            !- Name
    atividade,                !- Schedule Type Limits Name
    Through: 12/31,           !- Field 1
    For:AllDays,              !- Field 2
    Until: 24:00,             !- Field 3
    108;                      !- Field 4

Schedule:Compact,
    sch_ativ_dorm,            !- Name
    atividade,                !- Schedule Type Limits Name
    Through: 12/31,           !- Field 1
    For:AllDays,              !- Field 2
    Until: 24:00,             !- Field 3
    81;                       !- Field 4

Schedule:Compact,
    sch_ocup_sala,            !- Name
    ocupacao,                 !- Schedule Type Limits Name
    Through: 12/31,           !- Field 1
    For: AllDays,             !- Field 2
    Until: 14:00,             !- Field 3
    0,                        !- Field 4
    Until: 18:00,             !- Field 5
    0.5,                      !- Field 6
    Until: 22:00,             !- Field 7
    1,                        !- Field 8
    Until: 24:00,             !- Field 9
    0;                        !- Field 10

Schedule:Compact,
    sch_ocup_dorm,            !- Name
    ocupacao,                 !- Schedule Type Limits Name
    Through: 12/31,           !- Field 1
    For: AllDays,             !- Field 2
    Until: 08:00,             !- Field 3
    1,                        !- Field 4
    Until: 22:00,             !- Field 5
    0,                        !- Field 6
    Until 24:00,              !- Field 7
    1;                        !- Field 8

Schedule:Compact,
    sch_equip_sala,           !- Name
    on_off,                   !- Schedule Type Limits Name
    Through: 12/31,           !- Field 1
    For:AllDays,              !- Field 2
    Until: 14:00,             !- Field 3
    0,                        !- Field 4
    Until: 22:00,             !- Field 5
    1,                        !- Field 6
    Until: 24:00,             !- Field 7
    0;                        !- Field 8

Schedule:Compact,
    sch_vn_tempcontrole_janela,    !- Name
    faixa_temp,               !- Schedule Type Limits Name
    Through: 12/31,           !- Field 1
    For: AllDays,             !- Field 2
    Until: 24:00,             !- Field 3
    19;                       !- Field 4

Schedule:Compact,
    sch_vn_sala,              !- Name
    on_off,                   !- Schedule Type Limits Name
    Through: 12/31,           !- Field 1
    For: AllDays,             !- Field 2
    Until: 14:00,             !- Field 3
    0,                        !- Field 4
    Until: 22:00,             !- Field 5
    1,                        !- Field 6
    Until: 24:00,             !- Field 7
    0;                        !- Field 8

Schedule:Compact,
    sch_vn_dorm,              !- Name
    on_off,                   !- Schedule Type Limits Name
    Through: 12/31,           !- Field 1
    For: AllDays,             !- Field 2
    Until:  8:00,             !- Field 3
    1,                        !- Field 4
    Until: 22:00,             !- Field 5
    0,                        !- Field 6
    Until: 24:00,             !- Field 7
    1;                        !- Field 8

Material,
    ref_par_int_abs0.5,       !- Name
    Rough,                    !- Roughness
    0.1,                      !- Thickness
    1.75,                     !- Conductivity
    2200,                     !- Density
    1000,                     !- Specific Heat
    0.9,                      !- Thermal Absorptance
    0.5,                      !- Solar Absorptance
    0.5;                      !- Visible Absorptance

Material,
    porta_mad_3cm_abs0.5,     !- Name
    MediumSmooth,             !- Roughness
    0.03,                     !- Thickness
    0.15,                     !- Conductivity
    650,                      !- Density
    2300,                     !- Specific Heat
    0.9,                      !- Thermal Absorptance
    0.5,                      !- Solar Absorptance
    0.5;                      !- Visible Absorptance

Material,
    ref_piso_abs0.5,          !- Name
    Rough,                    !- Roughness
    0.1,                      !- Thickness
    1.75,                     !- Conductivity
    2200,                     !- Density
    1000,                     !- Specific Heat
    0.9,                      !- Thermal Absorptance
    0.5,                      !- Solar Absorptance
    0.5;                      !- Visible Absorptance

Material,
    ref_laje_abs0.5,          !- Name
    Rough,                    !- Roughness
    0.1,                      !- Thickness
    1.75,                     !- Conductivity
    2200,                     !- Density
    1000,                     !- Specific Heat
    0.9,                      !- Thermal Absorptance
    0.5,                      !- Solar Absorptance
    0.5;                      !- Visible Absorptance

Material,
    ref_par_ext_abs0.58,      !- Name
    Rough,                    !- Roughness
    0.1,                      !- Thickness
    1.75,                     !- Conductivity
    2200,                     !- Density
    1000,                     !- Specific Heat
    0.9,                      !- Thermal Absorptance
    0.58,                     !- Solar Absorptance
    0.58;                     !- Visible Absorptance

Material,
    ref_telha_abs0.65,        !- Name
    MediumRough,              !- Roughness
    0.006,                    !- Thickness
    0.65,                     !- Conductivity
    1700,                     !- Density
    840,                      !- Specific Heat
    0.9,                      !- Thermal Absorptance
    0.65,                     !- Solar Absorptance
    0.65;                     !- Visible Absorptance

Material:NoMass,
    ref_isolamento_R0.67,     !- Name
    Smooth,                   !- Roughness
    0.67,                     !- Thermal Resistance
    0.9,                      !- Thermal Absorptance
    0.7,                      !- Solar Absorptance
    0.7;                      !- Visible Absorptance

Material:AirGap,
    ref_camara_ar_cob,        !- Name
    0.21;                     !- Thermal Resistance

WindowMaterial:SimpleGlazingSystem,
    ref_vidro,                !- Name
    5.7,                      !- UFactor
    0.87;                     !- Solar Heat Gain Coefficient

WindowMaterial:Glazing,
    Clear 3mm,                !- Name
    SpectralAverage,          !- Optical Data Type
    ,                         !- Window Glass Spectral Data Set Name
    0.003,                    !- Thickness
    0.837,                    !- Solar Transmittance at Normal Incidence
    0.075,                    !- Front Side Solar Reflectance at Normal Incidence
    0.075,                    !- Back Side Solar Reflectance at Normal Incidence
    0.898,                    !- Visible Transmittance at Normal Incidence
    0.081,                    !- Front Side Visible Reflectance at Normal Incidence
    0.081,                    !- Back Side Visible Reflectance at Normal Incidence
    0,                        !- Infrared Transmittance at Normal Incidence
    0.84,                     !- Front Side Infrared Hemispherical Emissivity
    0.84,                     !- Back Side Infrared Hemispherical Emissivity
    0.9;                      !- Conductivity

Construction,
    Exterior Floor,           !- Name
    ref_laje_abs0.5;          !- Outside Layer

Construction,
    Interior Floor,           !- Name
    ref_laje_abs0.5;          !- Outside Layer

Construction,
    Exterior Wall,            !- Name
    ref_par_ext_abs0.58;      !- Outside Layer

Construction,
    Interior Wall,            !- Name
    ref_par_int_abs0.5;       !- Outside Layer

Construction,
    Exterior Roof,            !- Name
    ref_telha_abs0.65,        !- Outside Layer
    ref_camara_ar_cob,        !- Layer 2
    ref_isolamento_R0.67,     !- Layer 3
    ref_laje_abs0.5;          !- Layer 4

Construction,
    Interior Ceiling,         !- Name
    ref_laje_abs0.5;          !- Outside Layer

Construction,
    Exterior Window,          !- Name
    ref_vidro;                !- Outside Layer

Construction,
    Exterior Door,            !- Name
    porta_mad_3cm_abs0.5;     !- Outside Layer

Construction,
    Interior Door,            !- Name
    porta_mad_3cm_abs0.5;     !- Outside Layer

GlobalGeometryRules,
    LowerLeftCorner,          !- Starting Vertex Position
    Counterclockwise,         !- Vertex Entry Direction
    World,                    !- Coordinate System
    Relative,                 !- Daylighting Reference Point Coordinate System
    World;                    !- Rectangular Surface Coordinate System

Zone,
    UH_01_DORM2,              !- Name
    0,                        !- Direction of Relative North
    0,                        !- X Origin
    0,                        !- Y Origin
    0,                        !- Z Origin
    ,                         !- Type
    1;                        !- Multiplier

Zone,
    UH_01_DORM1,              !- Name
    0,                        !- Direction of Relative North
    0,                        !- X Origin
    0,                        !- Y Origin
    0,                        !- Z Origin
    ,                         !- Type
    1;                        !- Multiplier

Zone,
    UH_01_BWC,                !- Name
    0,                        !- Direction of Relative North
    0,                        !- X Origin
    0,                        !- Y Origin
    0,                        !- Z Origin
    ,                         !- Type
    1;                        !- Multiplier

Zone,
    UH_01_SALA,               !- Name
    0,                        !- Direction of Relative North
    0,                        !- X Origin
    0,                        !- Y Origin
    0,                        !- Z Origin
    ,                         !- Type
    1;                        !- Multiplier

Zone,
    CORE1,                    !- Name
    0,                        !- Direction of Relative North
    0,                        !- X Origin
    0,                        !- Y Origin
    0,                        !- Z Origin
    ,                         !- Type
    1;                        !- Multiplier

Zone,
    UH_02_SALA,               !- Name
    0,                        !- Direction of Relative North
    0,                        !- X Origin
    0,                        !- Y Origin
    0,                        !- Z Origin
    ,                         !- Type
    1;                        !- Multiplier

Zone,
    UH_02_BWC,                !- Name
    0,                        !- Direction of Relative North
    0,                        !- X Origin
    0,                        !- Y Origin
    0,                        !- Z Origin
    ,                         !- Type
    1;                        !- Multiplier

Zone,
    UH_02_DORM1,              !- Name
    0,                        !- Direction of Relative North
    0,                        !- X Origin
    0,                        !- Y Origin
    0,                        !- Z Origin
    ,                         !- Type
    1;                        !- Multiplier

Zone,
    UH_02_DORM2,              !- Name
    0,                        !- Direction of Relative North
    0,                        !- X Origin
    0,                        !- Y Origin
    0,                        !- Z Origin
    ,                         !- Type
    1;                        !- Multiplier

Zone,
    UH_04_DORM1,              !- Name
    0,                        !- Direction of Relative North
    0,                        !- X Origin
    0,                        !- Y Origin
    0,                        !- Z Origin
    ,                         !- Type
    1;                        !- Multiplier

Zone,
    UH_03_DORM1,              !- Name
    0,                        !- Direction of Relative North
    0,                        !- X Origin
    0,                        !- Y Origin
    0,                        !- Z Origin
    ,                         !- Type
    1;                        !- Multiplier

Zone,
    UH_03_SALA,               !- Name
    0,                        !- Direction of Relative North
    0,                        !- X Origin
    0,                        !- Y Origin
    0,                        !- Z Origin
    ,                         !- Type
    1;                        !- Multiplier

Zone,
    UH_04_DORM2,              !- Name
    0,                        !- Direction of Relative North
    0,                        !- X Origin
    0,                        !- Y Origin
    0,                        !- Z Origin
    ,                         !- Type
    1;                        !- Multiplier

Zone,
    UH_03_BWC,                !- Name
    0,                        !- Direction of Relative North
    0,                        !- X Origin
    0,                        !- Y Origin
    0,                        !- Z Origin
    ,                         !- Type
    1;                        !- Multiplier

Zone,
    UH_04_SALA,               !- Name
    0,                        !- Direction of Relative North
    0,                        !- X Origin
    0,                        !- Y Origin
    0,                        !- Z Origin
    ,                         !- Type
    1;                        !- Multiplier

Zone,
    CORE2,                    !- Name
    0,                        !- Direction of Relative North
    0,                        !- X Origin
    0,                        !- Y Origin
    0,                        !- Z Origin
    ,                         !- Type
    1;                        !- Multiplier

Zone,
    UH_04_BWC,                !- Name
    0,                        !- Direction of Relative North
    0,                        !- X Origin
    0,                        !- Y Origin
    0,                        !- Z Origin
    ,                         !- Type
    1;                        !- Multiplier

Zone,
    UH_03_DORM2,              !- Name
    0,                        !- Direction of Relative North
    0,                        !- X Origin
    0,                        !- Y Origin
    0,                        !- Z Origin
    ,                         !- Type
    1;                        !- Multiplier

ZoneList,
    salas,                    !- Name
    UH_01_SALA,               !- Zone 1 Name
    UH_02_SALA,               !- Zone 2 Name
    UH_03_SALA,               !- Zone 3 Name
    UH_04_SALA;               !- Zone 4 Name

ZoneList,
    dorms,                    !- Name
    UH_01_DORM1,              !- Zone 1 Name
    UH_01_DORM2,              !- Zone 2 Name
    UH_02_DORM1,              !- Zone 3 Name
    UH_02_DORM2,              !- Zone 4 Name
    UH_03_DORM1,              !- Zone 5 Name
    UH_03_DORM2,              !- Zone 6 Name
    UH_04_DORM1,              !- Zone 7 Name
    UH_04_DORM2;              !- Zone 8 Name

BuildingSurface:Detailed,
    5977ED,                   !- Name
    Floor,                    !- Surface Type
    Exterior Floor,           !- Construction Name
    UH_01_DORM2,              !- Zone Name
    ,                         !- Space Name
    OtherSideConditionsModel,    !- Outside Boundary Condition
    ground_coupled_oscm,      !- Outside Boundary Condition Object
    NoSun,                    !- Sun Exposure
    NoWind,                   !- Wind Exposure
    ,                         !- View Factor to Ground
    4,                        !- Number of Vertices
    3.1,                      !- Vertex 1 Xcoordinate
    1.5,                      !- Vertex 1 Ycoordinate
    0,                        !- Vertex 1 Zcoordinate
    0,                        !- Vertex 2 Xcoordinate
    1.5,                      !- Vertex 2 Ycoordinate
    0,                        !- Vertex 2 Zcoordinate
    0,                        !- Vertex 3 Xcoordinate
    4.36,                     !- Vertex 3 Ycoordinate
    0,                        !- Vertex 3 Zcoordinate
    3.1,                      !- Vertex 4 Xcoordinate
    4.36,                     !- Vertex 4 Ycoordinate
    0;                        !- Vertex 4 Zcoordinate

BuildingSurface:Detailed,
    732372,                   !- Name
    Wall,                     !- Surface Type
    Exterior Wall,            !- Construction Name
    UH_01_DORM2,              !- Zone Name
    ,                         !- Space Name
    Outdoors,                 !- Outside Boundary Condition
    ,                         !- Outside Boundary Condition Object
    SunExposed,               !- Sun Exposure
    WindExposed,              !- Wind Exposure
    ,                         !- View Factor to Ground
    4,                        !- Number of Vertices
    0,                        !- Vertex 1 Xcoordinate
    1.5,                      !- Vertex 1 Ycoordinate
    0,                        !- Vertex 1 Zcoordinate
    3.1,                      !- Vertex 2 Xcoordinate
    1.5,                      !- Vertex 2 Ycoordinate
    0,                        !- Vertex 2 Zcoordinate
    3.1,                      !- Vertex 3 Xcoordinate
    1.5,                      !- Vertex 3 Ycoordinate
    2.5,                      !- Vertex 3 Zcoordinate
    0,                        !- Vertex 4 Xcoordinate
    1.5,                      !- Vertex 4 Ycoordinate
    2.5;                      !- Vertex 4 Zcoordinate

BuildingSurface:Detailed,
    1D3F6B,                   !- Name
    Wall,                     !- Surface Type
    Interior Wall,            !- Construction Name
    UH_01_DORM2,              !- Zone Name
    ,                         !- Space Name
    Surface,                  !- Outside Boundary Condition
    4DD135,                   !- Outside Boundary Condition Object
    NoSun,                    !- Sun Exposure
    NoWind,                   !- Wind Exposure
    ,                         !- View Factor to Ground
    4,                        !- Number of Vertices
    3.1,                      !- Vertex 1 Xcoordinate
    4.36,                     !- Vertex 1 Ycoordinate
    0,                        !- Vertex 1 Zcoordinate
    0,                        !- Vertex 2 Xcoordinate
    4.36,                     !- Vertex 2 Ycoordinate
    0,                        !- Vertex 2 Zcoordinate
    0,                        !- Vertex 3 Xcoordinate
    4.36,                     !- Vertex 3 Ycoordinate
    2.5,                      !- Vertex 3 Zcoordinate
    3.1,                      !- Vertex 4 Xcoordinate
    4.36,                     !- Vertex 4 Ycoordinate
    2.5;                      !- Vertex 4 Zcoordinate

BuildingSurface:Detailed,
    571E44,                   !- Name
    Wall,                     !- Surface Type
    Interior Wall,            !- Construction Name
    UH_01_DORM2,              !- Zone Name
    ,                         !- Space Name
    Surface,                  !- Outside Boundary Condition
    B8B329,                   !- Outside Boundary Condition Object
    NoSun,                    !- Sun Exposure
    NoWind,                   !- Wind Exposure
    ,                         !- View Factor to Ground
    4,                        !- Number of Vertices
    3.1,                      !- Vertex 1 Xcoordinate
    1.5,                      !- Vertex 1 Ycoordinate
    0,                        !- Vertex 1 Zcoordinate
    3.1,                      !- Vertex 2 Xcoordinate
    4.36,                     !- Vertex 2 Ycoordinate
    0,                        !- Vertex 2 Zcoordinate
    3.1,                      !- Vertex 3 Xcoordinate
    4.36,                     !- Vertex 3 Ycoordinate
    2.5,                      !- Vertex 3 Zcoordinate
    3.1,                      !- Vertex 4 Xcoordinate
    1.5,                      !- Vertex 4 Ycoordinate
    2.5;                      !- Vertex 4 Zcoordinate

BuildingSurface:Detailed,
    CD05BD,                   !- Name
    Wall,                     !- Surface Type
    Exterior Wall,            !- Construction Name
    UH_01_DORM2,              !- Zone Name
    ,                         !- Space Name
    Outdoors,                 !- Outside Boundary Condition
    ,                         !- Outside Boundary Condition Object
    SunExposed,               !- Sun Exposure
    WindExposed,              !- Wind Exposure
    ,                         !- View Factor to Ground
    4,                        !- Number of Vertices
    0,                        !- Vertex 1 Xcoordinate
    4.36,                     !- Vertex 1 Ycoordinate
    0,                        !- Vertex 1 Zcoordinate
    0,                        !- Vertex 2 Xcoordinate
    1.5,                      !- Vertex 2 Ycoordinate
    0,                        !- Vertex 2 Zcoordinate
    0,                        !- Vertex 3 Xcoordinate
    1.5,                      !- Vertex 3 Ycoordinate
    2.5,                      !- Vertex 3 Zcoordinate
    0,                        !- Vertex 4 Xcoordinate
    4.36,                     !- Vertex 4 Ycoordinate
    2.5;                      !- Vertex 4 Zcoordinate

BuildingSurface:Detailed,
    2FED03,                   !- Name
    Ceiling,                  !- Surface Type
    Interior Ceiling,         !- Construction Name
    UH_01_DORM2,              !- Zone Name
    ,                         !- Space Name
    Surface,                  !- Outside Boundary Condition
    E6556C,                   !- Outside Boundary Condition Object
    NoSun,                    !- Sun Exposure
    NoWind,                   !- Wind Exposure
    ,                         !- View Factor to Ground
    4,                        !- Number of Vertices
    0,                        !- Vertex 1 Xcoordinate
    1.5,                      !- Vertex 1 Ycoordinate
    2.5,                      !- Vertex 1 Zcoordinate
    3.1,                      !- Vertex 2 Xcoordinate
    1.5,                      !- Vertex 2 Ycoordinate
    2.5,                      !- Vertex 2 Zcoordinate
    3.1,                      !- Vertex 3 Xcoordinate
    4.36,                     !- Vertex 3 Ycoordinate
    2.5,                      !- Vertex 3 Zcoordinate
    0,                        !- Vertex 4 Xcoordinate
    4.36,                     !- Vertex 4 Ycoordinate
    2.5;                      !- Vertex 4 Zcoordinate

BuildingSurface:Detailed,
    925D22,                   !- Name
    Floor,                    !- Surface Type
    Exterior Floor,           !- Construction Name
    UH_01_DORM1,              !- Zone Name
    ,                         !- Space Name
    OtherSideConditionsModel,    !- Outside Boundary Condition
    ground_coupled_oscm,      !- Outside Boundary Condition Object
    NoSun,                    !- Sun Exposure
    NoWind,                   !- Wind Exposure
    ,                         !- View Factor to Ground
    4,                        !- Number of Vertices
    3.1,                      !- Vertex 1 Xcoordinate
    4.36,                     !- Vertex 1 Ycoordinate
    0,                        !- Vertex 1 Zcoordinate
    0,                        !- Vertex 2 Xcoordinate
    4.36,                     !- Vertex 2 Ycoordinate
    0,                        !- Vertex 2 Zcoordinate
    0,                        !- Vertex 3 Xcoordinate
    7.545,                    !- Vertex 3 Ycoordinate
    0,                        !- Vertex 3 Zcoordinate
    3.1,                      !- Vertex 4 Xcoordinate
    7.545,                    !- Vertex 4 Ycoordinate
    0;                        !- Vertex 4 Zcoordinate

BuildingSurface:Detailed,
    EF67CA,                   !- Name
    Ceiling,                  !- Surface Type
    Interior Ceiling,         !- Construction Name
    UH_01_DORM1,              !- Zone Name
    ,                         !- Space Name
    Surface,                  !- Outside Boundary Condition
    18A72E,                   !- Outside Boundary Condition Object
    NoSun,                    !- Sun Exposure
    NoWind,                   !- Wind Exposure
    ,                         !- View Factor to Ground
    4,                        !- Number of Vertices